.model raj_1ma_diode D ( Is=100pA n=1.679 )
